969516
  -OEChem-05082410303D

 47 48  0     0  0  0  0  0  0999 V2000
    7.4029   -1.3263    0.7759 O   0  0  0  0  0  0  0  0  0  0  0  0
   -7.3871   -1.1972   -1.0249 O   0  0  0  0  0  0  0  0  0  0  0  0
    6.3135   -3.3404   -0.7995 O   0  0  0  0  0  0  0  0  0  0  0  0
   -7.4431   -1.9508    1.6498 O   0  0  0  0  0  0  0  0  0  0  0  0
    2.0774    3.9183    0.0082 O   0  0  0  0  0  0  0  0  0  0  0  0
   -0.7337    2.0147   -1.5497 O   0  0  0  0  0  0  0  0  0  0  0  0
    4.2152    0.1624   -0.1618 C   0  0  0  0  0  0  0  0  0  0  0  0
   -4.1499    0.0187    0.1151 C   0  0  0  0  0  0  0  0  0  0  0  0
    0.0325    2.7881    0.6005 C   0  0  0  0  0  0  0  0  0  0  0  0
    5.4636    0.0090    0.4190 C   0  0  0  0  0  0  0  0  0  0  0  0
   -5.2198   -0.2584   -0.7203 C   0  0  0  0  0  0  0  0  0  0  0  0
    6.1754   -1.1716    0.2058 C   0  0  0  0  0  0  0  0  0  0  0  0
   -6.3336   -0.9225   -0.2061 C   0  0  0  0  0  0  0  0  0  0  0  0
    3.6591   -0.8321   -0.9499 C   0  0  0  0  0  0  0  0  0  0  0  0
   -4.1632   -0.3500    1.4506 C   0  0  0  0  0  0  0  0  0  0  0  0
    3.4633    1.4098    0.0623 C   0  0  0  0  0  0  0  0  0  0  0  0
   -2.9736    0.7211   -0.4274 C   0  0  0  0  0  0  0  0  0  0  0  0
    5.6288   -2.1824   -0.5851 C   0  0  0  0  0  0  0  0  0  0  0  0
   -6.3619   -1.3004    1.1364 C   0  0  0  0  0  0  0  0  0  0  0  0
    1.4750    2.8559    0.1393 C   0  0  0  0  0  0  0  0  0  0  0  0
   -0.9161    2.0663   -0.3361 C   0  0  0  0  0  0  0  0  0  0  0  0
    4.3707   -2.0125   -1.1631 C   0  0  0  0  0  0  0  0  0  0  0  0
   -5.2767   -1.0140    1.9646 C   0  0  0  0  0  0  0  0  0  0  0  0
    2.1398    1.5414   -0.1041 C   0  0  0  0  0  0  0  0  0  0  0  0
   -2.0693    1.3763    0.3142 C   0  0  0  0  0  0  0  0  0  0  0  0
    7.8896   -0.2460    1.5698 C   0  0  0  0  0  0  0  0  0  0  0  0
   -7.2788   -0.7771   -2.3836 C   0  0  0  0  0  0  0  0  0  0  0  0
   -0.3396    3.8125    0.7159 H   0  0  0  0  0  0  0  0  0  0  0  0
    0.0292    2.3169    1.5899 H   0  0  0  0  0  0  0  0  0  0  0  0
    5.8387    0.8262    1.0258 H   0  0  0  0  0  0  0  0  0  0  0  0
   -5.1448    0.0602   -1.7545 H   0  0  0  0  0  0  0  0  0  0  0  0
    2.6936   -0.7339   -1.4362 H   0  0  0  0  0  0  0  0  0  0  0  0
   -3.3333   -0.1676    2.1258 H   0  0  0  0  0  0  0  0  0  0  0  0
    4.0582    2.2679    0.3672 H   0  0  0  0  0  0  0  0  0  0  0  0
   -2.8704    0.6886   -1.5096 H   0  0  0  0  0  0  0  0  0  0  0  0
    3.9419   -2.7946   -1.7839 H   0  0  0  0  0  0  0  0  0  0  0  0
   -5.2841   -1.3074    3.0111 H   0  0  0  0  0  0  0  0  0  0  0  0
    1.4908    0.7093   -0.3479 H   0  0  0  0  0  0  0  0  0  0  0  0
   -2.1353    1.4686    1.3916 H   0  0  0  0  0  0  0  0  0  0  0  0
    7.1616   -3.2862   -0.3257 H   0  0  0  0  0  0  0  0  0  0  0  0
   -7.2855   -2.1323    2.5922 H   0  0  0  0  0  0  0  0  0  0  0  0
    7.2578   -0.0732    2.4478 H   0  0  0  0  0  0  0  0  0  0  0  0
    8.0337    0.6611    0.9731 H   0  0  0  0  0  0  0  0  0  0  0  0
    8.8763   -0.5400    1.9427 H   0  0  0  0  0  0  0  0  0  0  0  0
   -6.4576   -1.2860   -2.8996 H   0  0  0  0  0  0  0  0  0  0  0  0
   -7.2124    0.3132   -2.4653 H   0  0  0  0  0  0  0  0  0  0  0  0
   -8.2037   -1.0768   -2.8876 H   0  0  0  0  0  0  0  0  0  0  0  0
  1 12  1  0  0  0  0
  1 26  1  0  0  0  0
  2 13  1  0  0  0  0
  2 27  1  0  0  0  0
  3 18  1  0  0  0  0
  3 40  1  0  0  0  0
  4 19  1  0  0  0  0
  4 41  1  0  0  0  0
  5 20  2  0  0  0  0
  6 21  2  0  0  0  0
  7 10  2  0  0  0  0
  7 14  1  0  0  0  0
  7 16  1  0  0  0  0
  8 11  2  0  0  0  0
  8 15  1  0  0  0  0
  8 17  1  0  0  0  0
  9 20  1  0  0  0  0
  9 21  1  0  0  0  0
  9 28  1  0  0  0  0
  9 29  1  0  0  0  0
 10 12  1  0  0  0  0
 10 30  1  0  0  0  0
 11 13  1  0  0  0  0
 11 31  1  0  0  0  0
 12 18  2  0  0  0  0
 13 19  2  0  0  0  0
 14 22  2  0  0  0  0
 14 32  1  0  0  0  0
 15 23  2  0  0  0  0
 15 33  1  0  0  0  0
 16 24  2  0  0  0  0
 16 34  1  0  0  0  0
 17 25  2  0  0  0  0
 17 35  1  0  0  0  0
 18 22  1  0  0  0  0
 19 23  1  0  0  0  0
 20 24  1  0  0  0  0
 21 25  1  0  0  0  0
 22 36  1  0  0  0  0
 23 37  1  0  0  0  0
 24 38  1  0  0  0  0
 25 39  1  0  0  0  0
 26 42  1  0  0  0  0
 26 43  1  0  0  0  0
 26 44  1  0  0  0  0
 27 45  1  0  0  0  0
 27 46  1  0  0  0  0
 27 47  1  0  0  0  0
M  END
> <PUBCHEM_COMPOUND_CID>
969516

> <PUBCHEM_CONFORMER_RMSD>
1

> <PUBCHEM_CONFORMER_DIVERSEORDER>
82
80
54
21
40
74
55
61
46
34
47
4
43
38
81
26
17
78
6
35
23
73
57
63
2
39
32
14
1
30
56
36
72
41
70
60
3
69
27
58
33
25
49
71
42
65
28
76
5
48
52
77
37
79
59
9
29
8
13
50
31
20
62
7
44
16
66
75
51
68
67
22
64
45
24
12
19
11
18
15
10
53

> <PUBCHEM_MMFF94_PARTIAL_CHARGES>
39
1 -0.36
10 -0.15
11 -0.15
12 0.08
13 0.08
14 -0.15
15 -0.15
16 -0.18
17 -0.18
18 0.08
19 0.08
2 -0.36
20 0.49
21 0.49
22 -0.15
23 -0.15
24 -0.14
25 -0.14
26 0.28
27 0.28
3 -0.53
30 0.15
31 0.15
32 0.15
33 0.15
34 0.15
35 0.15
36 0.15
37 0.15
38 0.15
39 0.15
4 -0.53
40 0.45
41 0.45
5 -0.57
6 -0.57
7 0.03
8 0.03
9 0.12

> <PUBCHEM_EFFECTIVE_ROTOR_COUNT>
8

> <PUBCHEM_PHARMACOPHORE_FEATURES>
9
1 1 acceptor
1 2 acceptor
1 3 donor
1 4 donor
1 5 acceptor
1 6 acceptor
1 9 anion
6 7 10 12 14 18 22 rings
6 8 11 13 15 19 23 rings

> <PUBCHEM_HEAVY_ATOM_COUNT>
27

> <PUBCHEM_ATOM_DEF_STEREO_COUNT>
0

> <PUBCHEM_ATOM_UDEF_STEREO_COUNT>
0

> <PUBCHEM_BOND_DEF_STEREO_COUNT>
2

> <PUBCHEM_BOND_UDEF_STEREO_COUNT>
0

> <PUBCHEM_ISOTOPIC_ATOM_COUNT>
0

> <PUBCHEM_COMPONENT_COUNT>
1

> <PUBCHEM_CACTVS_TAUTO_COUNT>
49

> <PUBCHEM_CONFORMER_ID>
000ECB2C00000052

> <PUBCHEM_MMFF94_ENERGY>
92.651

> <PUBCHEM_FEATURE_SELFOVERLAP>
45.672

> <PUBCHEM_SHAPE_FINGERPRINT>
10 15 12751240315890217573
10319688 140 18337398252872831732
10669705 162 18337104575972446653
10917259 69 18192703459598944165
11211813 128 18272932692783743174
11410812 94 16370996361790263860
117089 54 18267879293612551318
11828532 37 17896331370365246675
12342043 65 18188209905213906085
12758862 65 18410567410511369408
12760667 363 18411139121760541745
13533116 47 18272092759487660785
1361 87 17822307806824084883
13673619 4 18187085057046420093
13782708 43 18187646942401274497
13911852 28 18342177760919306525
13955234 65 18127412482311963032
14251764 75 8934705700369515222
14931854 50 17458064828953579058
15188451 53 18040713637372491534
15510800 12 18334017193917594602
15519825 34 15769481128208245039
16096371 109 17842545529393793568
1768 124 17918273151673982878
190975 80 18273208699771038632
1979834 28 17274556351083136116
20105231 36 17632018551801690966
20165401 70 18269560610432539175
2026 5 18187081767692646843
21033650 10 16081361917848681093
21307412 95 17967532394149105875
21315764 119 16081364133534249763
21585481 104 14779540124190440126
21585482 111 9150633321735644751
21585482 310 18261684739337370307
21682296 61 18408609175854266457
22149856 69 18130234757594157200
229767 8 17769106648757633326
2303208 19 17749956686811695209
23559900 14 17895477059232625973
270888 7 9367336016755256852
3014063 24 18201716258419056095
32027 91 18336829796691442577
3383291 50 18335703857830032987
34797466 226 16806453698591057205
4046055 4 18260545598226657845
439807 62 17967816037266467641
4461854 278 17917996092435725982
46194498 28 17749669692248635052
474113 269 18060412513729437109
5104073 3 17843397381307680056
513202 73 18411700985483149125
5718773 13 18410291402073184614
59682541 35 18342166779510532640
6126387 218 18059849546448719409
96874 4 17846488266996003727
9689198 14 12751239220357137022
9962374 69 18270389628765581455

> <PUBCHEM_SHAPE_MULTIPOLES>
520.43
25.03
3.33
1.58
5.48
1.87
-0.01
-22.64
-2.84
-3.92
0.39
2.68
-0.7
1.55

> <PUBCHEM_SHAPE_SELFOVERLAP>
1103.249

> <PUBCHEM_SHAPE_VOLUME>
290

> <PUBCHEM_COORDINATE_TYPE>
2
5
10

$$$$
44538441
  -OEChem-05082410303D

 43 44  0     0  0  0  0  0  0999 V2000
   -5.9824    2.3155   -0.8807 Cl  0  0  0  0  0  0  0  0  0  0  0  0
    6.5967   -2.4150   -0.1556 O   0  0  0  0  0  0  0  0  0  0  0  0
    8.6554   -0.5747    0.1658 O   0  0  0  0  0  0  0  0  0  0  0  0
    0.7011    2.1660   -0.5510 O   0  0  0  0  0  0  0  0  0  0  0  0
   -1.4960    1.6665    1.3693 O   0  0  0  0  0  0  0  0  0  0  0  0
   -8.9638   -1.7703   -0.5502 O   0  0  0  0  0  0  0  0  0  0  0  0
    4.7264    0.7260   -0.1671 C   0  0  0  0  0  0  0  0  0  0  0  0
   -0.2625    0.0489    0.0782 C   0  0  0  0  0  0  0  0  0  0  0  0
    5.0118   -0.6385   -0.2167 C   0  0  0  0  0  0  0  0  0  0  0  0
    6.3304   -1.0798   -0.1054 C   0  0  0  0  0  0  0  0  0  0  0  0
    5.7595    1.6491   -0.0061 C   0  0  0  0  0  0  0  0  0  0  0  0
    3.3332    1.1915   -0.2845 C   0  0  0  0  0  0  0  0  0  0  0  0
   -5.2945   -0.0400    0.3287 C   0  0  0  0  0  0  0  0  0  0  0  0
    7.3635   -0.1567    0.0558 C   0  0  0  0  0  0  0  0  0  0  0  0
    0.8823    1.0032   -0.1983 C   0  0  0  0  0  0  0  0  0  0  0  0
    7.0781    1.2077    0.1056 C   0  0  0  0  0  0  0  0  0  0  0  0
    2.2534    0.4291   -0.0612 C   0  0  0  0  0  0  0  0  0  0  0  0
   -1.5228    0.6907    0.6236 C   0  0  0  0  0  0  0  0  0  0  0  0
   -3.9765    0.5256    0.6663 C   0  0  0  0  0  0  0  0  0  0  0  0
   -2.8061    0.0344    0.2352 C   0  0  0  0  0  0  0  0  0  0  0  0
   -6.2610    0.6888   -0.3645 C   0  0  0  0  0  0  0  0  0  0  0  0
   -5.5611   -1.3501    0.7265 C   0  0  0  0  0  0  0  0  0  0  0  0
   -7.4941    0.1075   -0.6601 C   0  0  0  0  0  0  0  0  0  0  0  0
   -6.7943   -1.9312    0.4312 C   0  0  0  0  0  0  0  0  0  0  0  0
   -7.7607   -1.2026   -0.2622 C   0  0  0  0  0  0  0  0  0  0  0  0
    5.4840   -3.2917   -0.3224 C   0  0  0  0  0  0  0  0  0  0  0  0
   -0.4837   -0.4585   -0.8675 H   0  0  0  0  0  0  0  0  0  0  0  0
    0.0492   -0.7019    0.8130 H   0  0  0  0  0  0  0  0  0  0  0  0
    4.1950   -1.3316   -0.3711 H   0  0  0  0  0  0  0  0  0  0  0  0
    5.5556    2.7163    0.0361 H   0  0  0  0  0  0  0  0  0  0  0  0
    3.2175    2.2364   -0.5627 H   0  0  0  0  0  0  0  0  0  0  0  0
    7.8733    1.9377    0.2311 H   0  0  0  0  0  0  0  0  0  0  0  0
    2.3064   -0.6087    0.2446 H   0  0  0  0  0  0  0  0  0  0  0  0
   -4.0117    1.4142    1.2918 H   0  0  0  0  0  0  0  0  0  0  0  0
   -2.7541   -0.8421   -0.4017 H   0  0  0  0  0  0  0  0  0  0  0  0
   -4.8247   -1.9355    1.2721 H   0  0  0  0  0  0  0  0  0  0  0  0
   -8.2503    0.6724   -1.2007 H   0  0  0  0  0  0  0  0  0  0  0  0
   -6.9968   -2.9518    0.7446 H   0  0  0  0  0  0  0  0  0  0  0  0
    9.2317    0.2017    0.2709 H   0  0  0  0  0  0  0  0  0  0  0  0
    5.8794   -4.3129   -0.3330 H   0  0  0  0  0  0  0  0  0  0  0  0
    4.9874   -3.1361   -1.2863 H   0  0  0  0  0  0  0  0  0  0  0  0
    4.7899   -3.2313    0.5229 H   0  0  0  0  0  0  0  0  0  0  0  0
   -9.5096   -1.1258   -1.0327 H   0  0  0  0  0  0  0  0  0  0  0  0
  1 21  1  0  0  0  0
  2 10  1  0  0  0  0
  2 26  1  0  0  0  0
  3 14  1  0  0  0  0
  3 39  1  0  0  0  0
  4 15  2  0  0  0  0
  5 18  2  0  0  0  0
  6 25  1  0  0  0  0
  6 43  1  0  0  0  0
  7  9  2  0  0  0  0
  7 11  1  0  0  0  0
  7 12  1  0  0  0  0
  8 15  1  0  0  0  0
  8 18  1  0  0  0  0
  8 27  1  0  0  0  0
  8 28  1  0  0  0  0
  9 10  1  0  0  0  0
  9 29  1  0  0  0  0
 10 14  2  0  0  0  0
 11 16  2  0  0  0  0
 11 30  1  0  0  0  0
 12 17  2  0  0  0  0
 12 31  1  0  0  0  0
 13 19  1  0  0  0  0
 13 21  2  0  0  0  0
 13 22  1  0  0  0  0
 14 16  1  0  0  0  0
 15 17  1  0  0  0  0
 16 32  1  0  0  0  0
 17 33  1  0  0  0  0
 18 20  1  0  0  0  0
 19 20  2  0  0  0  0
 19 34  1  0  0  0  0
 20 35  1  0  0  0  0
 21 23  1  0  0  0  0
 22 24  2  0  0  0  0
 22 36  1  0  0  0  0
 23 25  2  0  0  0  0
 23 37  1  0  0  0  0
 24 25  1  0  0  0  0
 24 38  1  0  0  0  0
 26 40  1  0  0  0  0
 26 41  1  0  0  0  0
 26 42  1  0  0  0  0
M  END
> <PUBCHEM_COMPOUND_CID>
44538441

> <PUBCHEM_CONFORMER_RMSD>
1

> <PUBCHEM_CONFORMER_DIVERSEORDER>
1
83
71
46
123
125
75
115
127
15
142
62
103
16
108
148
58
95
130
5
49
86
116
63
6
84
132
106
2
128
76
131
98
134
37
35
136
72
65
146
141
43
85
27
79
92
87
90
60
117
138
42
69
9
30
48
126
3
149
4
70
39
101
44
26
20
119
129
94
96
114
88
28
33
77
135
124
29
112
111
120
54
78
68
121
22
80
99
105
8
11
47
74
144
118
51
73
32
38
66
147
36
89
122
143
61
113
14
82
139
52
53
59
17
56
133
81
107
67
145
97
93
21
104
140
91
25
137
12
45
24
110
10
7
19
31
18
34
50
102
100
109
41
57
40
55
64
23
13

> <PUBCHEM_MMFF94_PARTIAL_CHARGES>
38
1 -0.18
10 0.08
11 -0.15
12 -0.18
13 0.03
14 0.08
15 0.49
16 -0.15
17 -0.14
18 0.49
19 -0.18
2 -0.36
20 -0.14
21 0.18
22 -0.15
23 -0.15
24 -0.15
25 0.08
26 0.28
29 0.15
3 -0.53
30 0.15
31 0.15
32 0.15
33 0.15
34 0.15
35 0.15
36 0.15
37 0.15
38 0.15
39 0.45
4 -0.57
43 0.45
5 -0.57
6 -0.53
7 0.03
8 0.12
9 -0.15

> <PUBCHEM_EFFECTIVE_ROTOR_COUNT>
7

> <PUBCHEM_PHARMACOPHORE_FEATURES>
8
1 2 acceptor
1 3 donor
1 4 acceptor
1 5 acceptor
1 6 donor
1 8 anion
6 13 21 22 23 24 25 rings
6 7 9 10 11 14 16 rings

> <PUBCHEM_HEAVY_ATOM_COUNT>
26

> <PUBCHEM_ATOM_DEF_STEREO_COUNT>
0

> <PUBCHEM_ATOM_UDEF_STEREO_COUNT>
0

> <PUBCHEM_BOND_DEF_STEREO_COUNT>
2

> <PUBCHEM_BOND_UDEF_STEREO_COUNT>
0

> <PUBCHEM_ISOTOPIC_ATOM_COUNT>
0

> <PUBCHEM_COMPONENT_COUNT>
1

> <PUBCHEM_CACTVS_TAUTO_COUNT>
96

> <PUBCHEM_CONFORMER_ID>
02A79A4900000001

> <PUBCHEM_MMFF94_ENERGY>
77.5486

> <PUBCHEM_FEATURE_SELFOVERLAP>
40.597

> <PUBCHEM_SHAPE_FINGERPRINT>
10066227 49 18410856521086012343
10670039 82 17748818619458045653
11135609 127 17677339445951358292
11315181 36 18272655667213738417
11386260 185 17023189374375224068
11638347 137 15554456180520603508
11719270 70 18201720639259934934
12082328 90 18411134728378217861
12539765 74 8070026696792264656
13533116 47 18343866598337306194
13668630 136 18408042905142259930
13885169 127 18333730204661902501
13914758 101 18113336379849591225
14178184 131 17844527910942348471
14251764 18 17917997187203303984
14849402 71 12031493428337069291
15183329 4 16226045595847218641
15419008 91 18261655052371089460
15690457 1 18272931643550849286
15849732 13 18408322211128753637
1768 124 18201441355133309150
18603816 31 17417523740338027039
19841028 212 18335981948947436122
20165401 70 18271243825190430542
2026 5 18412826868036380447
21130935 74 18129947750541358874
21315763 28 18409448102572781453
21585482 111 9871210327309089635
22224240 67 13470690347472448925
232437 2 18410012135627607366
23559900 14 18337669840961096457
249057 25 18339941371116522137
33532 11 18411418397476658834
3711267 37 12324242737144104127
4073 2 18041566957101097362
44880568 143 17530682091453115317
5758199 1 12679466386935631285
59682541 35 16917345952842389778
6441014 3 17187851914135838294
67123 10 18410011065706243916
99344 41 18409166597383658611
9953998 17 12319739177051730821

> <PUBCHEM_SHAPE_MULTIPOLES>
507.59
30.67
2.46
0.82
4.31
1.22
0.06
12.42
-3.33
-1.16
-0.33
0.75
-0.13
0.85

> <PUBCHEM_SHAPE_SELFOVERLAP>
1067.426

> <PUBCHEM_SHAPE_VOLUME>
285

> <PUBCHEM_COORDINATE_TYPE>
2
5
10

$$$$
86590085
  -OEChem-05082410303D

 50 51  0     0  0  0  0  0  0999 V2000
   -8.1820    0.6535    0.2206 O   0  0  0  0  0  0  0  0  0  0  0  0
    8.9022   -0.3982    0.7951 O   0  0  0  0  0  0  0  0  0  0  0  0
   -8.3728   -1.9558   -0.7190 O   0  0  0  0  0  0  0  0  0  0  0  0
    9.1195    0.2797   -1.8921 O   0  0  0  0  0  0  0  0  0  0  0  0
   -0.8592    1.4023    1.1718 O   0  0  0  0  0  0  0  0  0  0  0  0
    1.5718    0.0732    1.8888 O   0  0  0  0  0  0  0  0  0  0  0  0
   -4.6606   -0.3265    0.1774 C   0  0  0  0  0  0  0  0  0  0  0  0
   -7.0629   -0.1042    0.0490 C   0  0  0  0  0  0  0  0  0  0  0  0
   -5.8138    0.4391    0.3491 C   0  0  0  0  0  0  0  0  0  0  0  0
    5.3920    0.1470   -0.0679 C   0  0  0  0  0  0  0  0  0  0  0  0
   -4.7565   -1.6357   -0.2943 C   0  0  0  0  0  0  0  0  0  0  0  0
   -7.1590   -1.4134   -0.4225 C   0  0  0  0  0  0  0  0  0  0  0  0
    0.3639   -0.1732   -0.1821 C   0  0  0  0  0  0  0  0  0  0  0  0
   -3.3411    0.2481    0.4948 C   0  0  0  0  0  0  0  0  0  0  0  0
   -6.0057   -2.1792   -0.5941 C   0  0  0  0  0  0  0  0  0  0  0  0
    6.5370   -0.1496    0.6717 C   0  0  0  0  0  0  0  0  0  0  0  0
    7.7912   -0.1063    0.0627 C   0  0  0  0  0  0  0  0  0  0  0  0
    4.0673    0.1013    0.5761 C   0  0  0  0  0  0  0  0  0  0  0  0
    5.5013    0.4869   -1.4162 C   0  0  0  0  0  0  0  0  0  0  0  0
   -0.8904    0.4433    0.4050 C   0  0  0  0  0  0  0  0  0  0  0  0
   -2.1744   -0.2193    0.0288 C   0  0  0  0  0  0  0  0  0  0  0  0
    1.6129   -0.0411    0.6666 C   0  0  0  0  0  0  0  0  0  0  0  0
    7.9005    0.2337   -1.2858 C   0  0  0  0  0  0  0  0  0  0  0  0
    2.9048   -0.0127   -0.0813 C   0  0  0  0  0  0  0  0  0  0  0  0
    6.7555    0.5304   -2.0251 C   0  0  0  0  0  0  0  0  0  0  0  0
   -8.2663    1.8637   -0.5296 C   0  0  0  0  0  0  0  0  0  0  0  0
   -9.5787    2.5491   -0.2142 C   0  0  0  0  0  0  0  0  0  0  0  0
    8.7036   -0.7361    2.1666 C   0  0  0  0  0  0  0  0  0  0  0  0
   -5.7380    1.4536    0.7335 H   0  0  0  0  0  0  0  0  0  0  0  0
   -3.8884   -2.2750   -0.4242 H   0  0  0  0  0  0  0  0  0  0  0  0
    0.5251    0.3106   -1.1521 H   0  0  0  0  0  0  0  0  0  0  0  0
    0.2076   -1.2457   -0.3432 H   0  0  0  0  0  0  0  0  0  0  0  0
   -3.3604    1.1167    1.1488 H   0  0  0  0  0  0  0  0  0  0  0  0
   -6.0670   -3.2019   -0.9566 H   0  0  0  0  0  0  0  0  0  0  0  0
    6.3953   -0.4095    1.7158 H   0  0  0  0  0  0  0  0  0  0  0  0
    4.0771    0.1661    1.6616 H   0  0  0  0  0  0  0  0  0  0  0  0
    4.6400    0.7449   -2.0254 H   0  0  0  0  0  0  0  0  0  0  0  0
   -2.0993   -1.0618   -0.6482 H   0  0  0  0  0  0  0  0  0  0  0  0
    2.8373   -0.1083   -1.1584 H   0  0  0  0  0  0  0  0  0  0  0  0
    6.8272    0.8011   -3.0752 H   0  0  0  0  0  0  0  0  0  0  0  0
   -7.4452    2.5411   -0.2718 H   0  0  0  0  0  0  0  0  0  0  0  0
   -8.2149    1.6351   -1.6006 H   0  0  0  0  0  0  0  0  0  0  0  0
   -9.6487    2.7744    0.8551 H   0  0  0  0  0  0  0  0  0  0  0  0
   -9.6795    3.4804   -0.7786 H   0  0  0  0  0  0  0  0  0  0  0  0
  -10.4230    1.8956   -0.4575 H   0  0  0  0  0  0  0  0  0  0  0  0
   -8.2445   -2.8679   -1.0315 H   0  0  0  0  0  0  0  0  0  0  0  0
    9.0006    0.5323   -2.8238 H   0  0  0  0  0  0  0  0  0  0  0  0
    9.6914   -0.9371    2.5945 H   0  0  0  0  0  0  0  0  0  0  0  0
    8.1182   -1.6555    2.2756 H   0  0  0  0  0  0  0  0  0  0  0  0
    8.2782    0.1005    2.7314 H   0  0  0  0  0  0  0  0  0  0  0  0
  1  8  1  0  0  0  0
  1 26  1  0  0  0  0
  2 17  1  0  0  0  0
  2 28  1  0  0  0  0
  3 12  1  0  0  0  0
  3 46  1  0  0  0  0
  4 23  1  0  0  0  0
  4 47  1  0  0  0  0
  5 20  2  0  0  0  0
  6 22  2  0  0  0  0
  7  9  2  0  0  0  0
  7 11  1  0  0  0  0
  7 14  1  0  0  0  0
  8  9  1  0  0  0  0
  8 12  2  0  0  0  0
  9 29  1  0  0  0  0
 10 16  2  0  0  0  0
 10 18  1  0  0  0  0
 10 19  1  0  0  0  0
 11 15  2  0  0  0  0
 11 30  1  0  0  0  0
 12 15  1  0  0  0  0
 13 20  1  0  0  0  0
 13 22  1  0  0  0  0
 13 31  1  0  0  0  0
 13 32  1  0  0  0  0
 14 21  2  0  0  0  0
 14 33  1  0  0  0  0
 15 34  1  0  0  0  0
 16 17  1  0  0  0  0
 16 35  1  0  0  0  0
 17 23  2  0  0  0  0
 18 24  2  0  0  0  0
 18 36  1  0  0  0  0
 19 25  2  0  0  0  0
 19 37  1  0  0  0  0
 20 21  1  0  0  0  0
 21 38  1  0  0  0  0
 22 24  1  0  0  0  0
 23 25  1  0  0  0  0
 24 39  1  0  0  0  0
 25 40  1  0  0  0  0
 26 27  1  0  0  0  0
 26 41  1  0  0  0  0
 26 42  1  0  0  0  0
 27 43  1  0  0  0  0
 27 44  1  0  0  0  0
 27 45  1  0  0  0  0
 28 48  1  0  0  0  0
 28 49  1  0  0  0  0
 28 50  1  0  0  0  0
M  END
> <PUBCHEM_COMPOUND_CID>
86590085

> <PUBCHEM_CONFORMER_RMSD>
1

> <PUBCHEM_CONFORMER_DIVERSEORDER>
8
31
55
68
49
36
52
66
19
33
67
71
4
40
45
47
56
44
46
72
50
28
61
35
6
10
59
29
20
7
41
2
43
69
27
13
74
38
1
65
48
16
3
58
37
24
32
63
30
34
12
22
21
51
62
54
53
17
42
73
64
14
57
26
39
23
5
60
25
9
70
18
15
11

> <PUBCHEM_MMFF94_PARTIAL_CHARGES>
39
1 -0.36
10 0.03
11 -0.15
12 0.08
13 0.12
14 -0.18
15 -0.15
16 -0.15
17 0.08
18 -0.18
19 -0.15
2 -0.36
20 0.49
21 -0.14
22 0.49
23 0.08
24 -0.14
25 -0.15
26 0.28
28 0.28
29 0.15
3 -0.53
30 0.15
33 0.15
34 0.15
35 0.15
36 0.15
37 0.15
38 0.15
39 0.15
4 -0.53
40 0.15
46 0.45
47 0.45
5 -0.57
6 -0.57
7 0.03
8 0.08
9 -0.15

> <PUBCHEM_EFFECTIVE_ROTOR_COUNT>
9

> <PUBCHEM_PHARMACOPHORE_FEATURES>
9
1 1 acceptor
1 13 anion
1 2 acceptor
1 3 donor
1 4 donor
1 5 acceptor
1 6 acceptor
6 10 16 17 19 23 25 rings
6 7 8 9 11 12 15 rings

> <PUBCHEM_HEAVY_ATOM_COUNT>
28

> <PUBCHEM_ATOM_DEF_STEREO_COUNT>
0

> <PUBCHEM_ATOM_UDEF_STEREO_COUNT>
0

> <PUBCHEM_BOND_DEF_STEREO_COUNT>
2

> <PUBCHEM_BOND_UDEF_STEREO_COUNT>
0

> <PUBCHEM_ISOTOPIC_ATOM_COUNT>
0

> <PUBCHEM_COMPONENT_COUNT>
1

> <PUBCHEM_CACTVS_TAUTO_COUNT>
96

> <PUBCHEM_CONFORMER_ID>
0529428500000008

> <PUBCHEM_MMFF94_ENERGY>
88.0719

> <PUBCHEM_FEATURE_SELFOVERLAP>
45.674

> <PUBCHEM_SHAPE_FINGERPRINT>
10 15 12324237282761957993
10299344 5 18186801391551654366
10391435 84 17060051579559137806
11315181 36 17704075110351170699
12089408 11 18113617893459453682
12144603 126 18040996207629367657
12539747 91 17203322303918404993
12838862 33 17274812541429339942
13673619 4 17131837577155652872
13685833 64 16128381480358630330
13885169 127 17131840850094578169
14251764 46 18410294709197996042
14428016 248 17385732395542086813
150020 25 17775287161791549096
15065858 18 17346877849233689150
15183329 4 18411425016158093874
15198563 99 17417542306195153952
15301273 46 17060338521960209386
15419008 91 17774424049543856289
15510794 2 17132396128867383751
1754911 235 18259707813182914180
18335252 114 16515400798828269398
195137 175 17894911824377345117
20157964 124 16298384661379046266
21095123 145 10953746590889305033
21267235 1 17346604092234016921
21360443 120 17967811648322543043
21362267 313 18336260129688680592
21781055 127 18187641358390175785
21792961 116 16988849336779233305
22224240 67 13830131693850833548
246663 6 17132122354993764646
3092352 35 17675925400455716083
5219985 9 18259984881497318372
5283156 175 18260546702364262562
58902169 19 17821731684443531822
5937810 71 15791996854555590919
6081469 158 14562522973882893110
9663363 56 17275098419095643392
9962374 69 13973670733174764096

> <PUBCHEM_SHAPE_MULTIPOLES>
541.01
37.98
1.58
1.43
3.97
0.19
-0.04
4.82
-5.48
-5.25
-0.26
3.47
-0.04
-3.57

> <PUBCHEM_SHAPE_SELFOVERLAP>
1138.168

> <PUBCHEM_SHAPE_VOLUME>
303.4

> <PUBCHEM_COORDINATE_TYPE>
2
5
10

$$$$
